data_Quartz
_chemical_name_mineral 'Quartz'
_chemical_formula_sum 'Si O2'
_space_group_IT_number 154
_symmetry_space_group_name_H-M 'P 32 2 1'
_cell_length_a 4.9134
_cell_length_b 4.9134
_cell_length_c 5.4052
_cell_angle_alpha 90
_cell_angle_beta 90
_cell_angle_gamma 120
loop_
_atom_site_label
_atom_site_type_symbol
_atom_site_fract_x
_atom_site_fract_y
_atom_site_fract_z
_atom_site_occupancy
Si1 Si 0.4697 0.0 0.0 1.0
O1 O 0.4135 0.2669 0.1188 1.0
O2 O 0.2669 0.4135 0.8812 1.0
