data_Silicon
_chemical_name_mineral 'Silicon'
_chemical_formula_sum 'Si'
_space_group_IT_number 227
_symmetry_space_group_name_H-M 'F d -3 m :1'
_cell_length_a 5.4307
_cell_length_b 5.4307
_cell_length_c 5.4307
_cell_angle_alpha 90
_cell_angle_beta 90
_cell_angle_gamma 90
loop_
_atom_site_label
_atom_site_type_symbol
_atom_site_fract_x
_atom_site_fract_y
_atom_site_fract_z
_atom_site_occupancy
Si1 Si 0.0 0.0 0.0 1.0
Si2 Si 0.25 0.25 0.25 1.0
